Info: SIMULATION PARAMETERS:
Info: TIMESTEP               2
Info: NUMBER OF STEPS        0
Info: STEPS PER CYCLE        20
Info: PERIODIC CELL BASIS 1  43.5096 0 0
Info: PERIODIC CELL BASIS 2  0 48.8198 0
Info: PERIODIC CELL BASIS 3  0 0 36.4701
Info: PERIODIC CELL CENTER   0 0 0
Info: WRAPPING WATERS AROUND PERIODIC BOUNDARIES ON OUTPUT.
Info: FIRST LDB TIMESTEP     100
Info: LAST LDB TIMESTEP     -1
Info: HOM BACKGROUND SCALING 1
Info: PME BACKGROUND SCALING 1
Info: MIN ATOMS PER PATCH    40
Info: INITIAL TEMPERATURE    100
Info: CENTER OF MASS MOVING INITIALLY? NO
Info: DIELECTRIC             1
Info: EXCLUDE                SCALED ONE-FOUR
Info: 1-4 ELECTROSTATICS SCALED BY 1
Info: MODIFIED 1-4 VDW PARAMETERS WILL BE USED
Info: DCD FILENAME           eq1.dcd
Info: DCD FREQUENCY          2000
Info: DCD FIRST STEP         2000
Info: DCD FILE WILL CONTAIN UNIT CELL DATA
Info: NO EXTENDED SYSTEM TRAJECTORY OUTPUT
Info: NO VELOCITY DCD OUTPUT
Info: NO FORCE DCD OUTPUT
Info: OUTPUT FILENAME        md
Info: RESTART FILENAME       md
Info: RESTART FREQUENCY      2000
Info: SWITCHING ACTIVE
Info: SWITCHING ON           8
Info: SWITCHING OFF          10
Info: PAIRLIST DISTANCE      12
Info: PAIRLIST SHRINK RATE   0.01
Info: PAIRLIST GROW RATE     0.01
Info: PAIRLIST TRIGGER       0.3
Info: PAIRLISTS PER CYCLE    2
Info: PAIRLISTS ENABLED
Info: MARGIN                 1
Info: HYDROGEN GROUP CUTOFF  2.5
Info: PATCH DIMENSION        15.5
Info: ENERGY OUTPUT STEPS    2000
Info: CROSSTERM ENERGY INCLUDED IN DIHEDRAL
Info: TIMING OUTPUT STEPS    20000
Info: HARMONIC CONSTRAINTS ACTIVE
Info: HARMONIC CONS EXP      2
Info: HARMONIC CONS SCALING  0.5
Info: LANGEVIN DYNAMICS ACTIVE
Info: LANGEVIN TEMPERATURE   100
Info: LANGEVIN DAMPING COEFFICIENT IS 5 INVERSE PS
Info: LANGEVIN DYNAMICS NOT APPLIED TO HYDROGENS
Info: LANGEVIN PISTON PRESSURE CONTROL ACTIVE
Info:        TARGET PRESSURE IS 1.01325 BAR
Info:     OSCILLATION PERIOD IS 100 FS
Info:             DECAY TIME IS 50 FS
Info:     PISTON TEMPERATURE IS 300 K
Info:       PRESSURE CONTROL IS GROUP-BASED
Info:    INITIAL STRAIN RATE IS 0 0 0
Info:       CELL FLUCTUATION IS ISOTROPIC
Info: PARTICLE MESH EWALD (PME) ACTIVE
Info: PME TOLERANCE               1e-06
Info: PME EWALD COEFFICIENT       0.312341
Info: PME INTERPOLATION ORDER     4
Info: PME GRID DIMENSIONS         44 54 40
Info: PME MAXIMUM GRID SPACING    1
Info: FULL ELECTROSTATIC EVALUATION FREQUENCY      2
Info: USING VERLET I (r-RESPA) MTS SCHEME.
Info: C1 SPLITTING OF LONG RANGE ELECTROSTATICS
Info: PLACING ATOMS IN PATCHES BY HYDROGEN GROUPS
Info: RIGID BONDS TO HYDROGEN : ALL
Info:         ERROR TOLERANCE : 1e-08
Info:          MAX ITERATIONS : 100
Info: RIGID WATER USING SETTLE ALGORITHM
Info: RANDOM NUMBER SEED     150661
Info: USE HYDROGEN BONDS?    NO
Info: COORDINATE PDB         ../md_min/md.coor
Info: STRUCTURE FILE         ../md.psf
Info: PARAMETER file: CHARMM format!
Info: PARAMETERS             ../parameters/par_all27_prot_lipid_na.inp
Info: PARAMETERS             ../parameters/probe.prm
Info: USING ARITHMETIC MEAN TO COMBINE L-J SIGMA PARAMETERS
Info: SUMMARY OF PARAMETERS:
Info: 307 BONDS
Info: 770 ANGLES
Info: 1254 DIHEDRAL
Info: 81 IMPROPER
Info: 6 CROSSTERM
Info: 190 VDW
Info: 0 VDW_PAIRS
Info: 0 NBTHOLE_PAIRS
Info: STRUCTURE SUMMARY:
Info: 7880 ATOMS
Info: 5999 BONDS
Info: 6061 ANGLES
Info: 5599 DIHEDRALS
Info: 262 IMPROPERS
Info: 83 CROSSTERMS
Info: 0 EXCLUSIONS
Info: 706 CONSTRAINTS
Info: 6809 RIGID BONDS
Info: 16831 DEGREES OF FREEDOM
Info: 2871 HYDROGEN GROUPS
Info: 4 ATOMS IN LARGEST HYDROGEN GROUP
Info: 2871 MIGRATION GROUPS
Info: 4 ATOMS IN LARGEST MIGRATION GROUP
Info: TOTAL MASS = 48030.1 amu
Info: TOTAL CHARGE = -1.24797e-06 e
Info: MASS DENSITY = 1.02957 g/cm^3
Info: ATOM DENSITY = 0.101721 atoms/A^3
Info: REMOVING COM VELOCITY 0.0401923 0.0423208 0.0617908
Info: NONBONDED TABLE R-SQUARED SPACING: 0.0625
Info: NONBONDED TABLE SIZE: 705 POINTS
TCL: Setting parameter langevinTemp to 100
TCL: Running for 1000 steps
ETITLE: TS BOND ANGLE DIHED IMPRP ELECT VDW BOUNDARY MISC KINETIC TOTAL TEMP POTENTIAL TOTAL3 TEMPAVG PRESSURE GPRESSURE VOLUME PRESSAVG GPRESSAVG
ENERGY: 0 81.1852 284.9904 447.8819 10.6982 -32674.0069 2725.6406 18.1606 0.0000 1669.9991 -27435.4508 99.8612 -29105.4499 -27435.1928 99.8612 -256.4347 -189.0744 77467.1392 -256.4347 -189.0744
TCL: Setting parameter langevinTemp to 110
TCL: Running for 1000 steps
ETITLE: TS BOND ANGLE DIHED IMPRP ELECT VDW BOUNDARY MISC KINETIC TOTAL TEMP POTENTIAL TOTAL3 TEMPAVG PRESSURE GPRESSURE VOLUME PRESSAVG GPRESSAVG
ENERGY: 2000 176.7418 632.8136 506.6825 29.0492 -31837.4082 2308.9955 45.9925 0.0000 1802.6770 -26334.4561 107.7949 -28137.1332 -26323.7531 95.3947 -117.3084 -64.7961 74204.3153 0.6296 0.5650
TCL: Setting parameter langevinTemp to 120
TCL: Running for 1000 steps
ETITLE: TS BOND ANGLE DIHED IMPRP ELECT VDW BOUNDARY MISC KINETIC TOTAL TEMP POTENTIAL TOTAL3 TEMPAVG PRESSURE GPRESSURE VOLUME PRESSAVG GPRESSAVG
ENERGY: 2000 176.7418 632.8136 506.6825 29.0492 -31837.4082 2308.9955 45.9925 0.0000 1802.4492 -26334.6840 107.7813 -28137.1332 -26324.7962 107.7813 -113.8018 -64.4158 74204.3153 -113.8018 -64.4158
TCL: Setting parameter langevinTemp to 130
TCL: Running for 1000 steps
ETITLE: TS BOND ANGLE DIHED IMPRP ELECT VDW BOUNDARY MISC KINETIC TOTAL TEMP POTENTIAL TOTAL3 TEMPAVG PRESSURE GPRESSURE VOLUME PRESSAVG GPRESSAVG
ENERGY: 4000 191.5997 687.5517 513.5993 27.7853 -31637.0425 2203.8759 40.3881 0.0000 2124.3257 -25847.9167 127.0286 -27972.2425 -25832.1486 119.9091 221.7888 289.9890 73576.1679 -2.2435 -2.3714
TCL: Setting parameter langevinTemp to 140
TCL: Running for 1000 steps
ETITLE: TS BOND ANGLE DIHED IMPRP ELECT VDW BOUNDARY MISC KINETIC TOTAL TEMP POTENTIAL TOTAL3 TEMPAVG PRESSURE GPRESSURE VOLUME PRESSAVG GPRESSAVG
ENERGY: 4000 191.5997 687.5517 513.5993 27.7853 -31637.0425 2203.8759 40.3881 0.0000 2124.0398 -25848.2027 127.0115 -27972.2425 -25835.3030 127.0115 226.3198 291.6851 73576.1679 226.3198 291.6851
TCL: Setting parameter langevinTemp to 150
TCL: Running for 1000 steps
ETITLE: TS BOND ANGLE DIHED IMPRP ELECT VDW BOUNDARY MISC KINETIC TOTAL TEMP POTENTIAL TOTAL3 TEMPAVG PRESSURE GPRESSURE VOLUME PRESSAVG GPRESSAVG
ENERGY: 6000 214.7252 785.1234 515.2949 29.6879 -31309.7580 2098.9033 43.2292 0.0000 2486.8370 -25135.9571 148.7058 -27622.7941 -25123.9989 140.7361 -311.6433 -259.4554 74157.6982 11.5849 11.6379
TCL: Setting parameter langevinTemp to 160
TCL: Running for 1000 steps
ETITLE: TS BOND ANGLE DIHED IMPRP ELECT VDW BOUNDARY MISC KINETIC TOTAL TEMP POTENTIAL TOTAL3 TEMPAVG PRESSURE GPRESSURE VOLUME PRESSAVG GPRESSAVG
ENERGY: 6000 214.7252 785.1234 515.2949 29.6879 -31309.7580 2098.9033 43.2292 0.0000 2486.5146 -25136.2795 148.6865 -27622.7941 -25122.1452 148.6865 -311.9904 -261.1777 74157.6982 -311.9904 -261.1777
TCL: Setting parameter langevinTemp to 170
TCL: Running for 1000 steps
ETITLE: TS BOND ANGLE DIHED IMPRP ELECT VDW BOUNDARY MISC KINETIC TOTAL TEMP POTENTIAL TOTAL3 TEMPAVG PRESSURE GPRESSURE VOLUME PRESSAVG GPRESSAVG
ENERGY: 8000 237.8535 819.6486 529.2919 31.2943 -31107.3770 2096.6754 46.9390 0.0000 2836.2355 -24509.4388 169.5988 -27345.6743 -24493.7669 160.6724 113.7415 143.1452 73670.9968 4.9836 5.0536
TCL: Setting parameter langevinTemp to 180
TCL: Running for 1000 steps
ETITLE: TS BOND ANGLE DIHED IMPRP ELECT VDW BOUNDARY MISC KINETIC TOTAL TEMP POTENTIAL TOTAL3 TEMPAVG PRESSURE GPRESSURE VOLUME PRESSAVG GPRESSAVG
ENERGY: 8000 237.8535 819.6486 529.2919 31.2943 -31107.3770 2096.6754 46.9390 0.0000 2835.8704 -24509.8038 169.5770 -27345.6743 -24493.1216 169.5770 97.5053 142.5297 73670.9968 97.5053 142.5297
TCL: Setting parameter langevinTemp to 190
TCL: Running for 1000 steps
ETITLE: TS BOND ANGLE DIHED IMPRP ELECT VDW BOUNDARY MISC KINETIC TOTAL TEMP POTENTIAL TOTAL3 TEMPAVG PRESSURE GPRESSURE VOLUME PRESSAVG GPRESSAVG
ENERGY: 10000 245.8188 878.3300 520.1394 37.9288 -30665.2730 1964.4011 45.7021 0.0000 3126.9716 -23845.9811 186.9840 -26972.9527 -23830.3911 180.7780 545.1140 599.4724 73157.0721 -0.0191 -0.2522
TCL: Setting parameter langevinTemp to 200
TCL: Running for 1000 steps
ETITLE: TS BOND ANGLE DIHED IMPRP ELECT VDW BOUNDARY MISC KINETIC TOTAL TEMP POTENTIAL TOTAL3 TEMPAVG PRESSURE GPRESSURE VOLUME PRESSAVG GPRESSAVG
ENERGY: 10000 245.8188 878.3300 520.1394 37.9288 -30665.2730 1964.4011 45.7021 0.0000 3126.5577 -23846.3950 186.9592 -26972.9527 -23828.3630 186.9592 545.1852 597.4356 73157.0721 545.1852 597.4356
TCL: Setting parameter langevinTemp to 210
TCL: Running for 1000 steps
ETITLE: TS BOND ANGLE DIHED IMPRP ELECT VDW BOUNDARY MISC KINETIC TOTAL TEMP POTENTIAL TOTAL3 TEMPAVG PRESSURE GPRESSURE VOLUME PRESSAVG GPRESSAVG
ENERGY: 12000 285.4682 936.8809 540.6125 36.6272 -30338.4141 1887.9250 49.8345 0.0000 3499.6683 -23101.3975 209.2702 -26601.0658 -23084.3121 201.9635 65.3982 94.1956 73365.9993 -5.1559 -5.0113
TCL: Setting parameter langevinTemp to 220
TCL: Running for 1000 steps
ETITLE: TS BOND ANGLE DIHED IMPRP ELECT VDW BOUNDARY MISC KINETIC TOTAL TEMP POTENTIAL TOTAL3 TEMPAVG PRESSURE GPRESSURE VOLUME PRESSAVG GPRESSAVG
ENERGY: 12000 285.4682 936.8809 540.6125 36.6272 -30338.4141 1887.9250 49.8345 0.0000 3499.2132 -23101.8526 209.2430 -26601.0658 -23081.1117 209.2430 50.9840 91.6807 73365.9993 50.9840 91.6807
TCL: Setting parameter langevinTemp to 230
TCL: Running for 1000 steps
ETITLE: TS BOND ANGLE DIHED IMPRP ELECT VDW BOUNDARY MISC KINETIC TOTAL TEMP POTENTIAL TOTAL3 TEMPAVG PRESSURE GPRESSURE VOLUME PRESSAVG GPRESSAVG
ENERGY: 14000 288.4088 1029.3776 565.4019 53.1653 -29733.3074 1590.4943 56.9265 0.0000 3772.7356 -22376.7975 225.5988 -26149.5330 -22357.4811 219.5164 -535.5571 -512.8156 74115.4716 -10.8944 -10.9313
TCL: Setting parameter langevinTemp to 240
TCL: Running for 1000 steps
ETITLE: TS BOND ANGLE DIHED IMPRP ELECT VDW BOUNDARY MISC KINETIC TOTAL TEMP POTENTIAL TOTAL3 TEMPAVG PRESSURE GPRESSURE VOLUME PRESSAVG GPRESSAVG
ENERGY: 14000 288.4088 1029.3776 565.4019 53.1653 -29733.3074 1590.4943 56.9265 0.0000 3772.2184 -22377.3147 225.5679 -26149.5330 -22357.9540 225.5679 -561.7072 -513.6155 74115.4716 -561.7072 -513.6155
TCL: Setting parameter langevinTemp to 250
TCL: Running for 1000 steps
ETITLE: TS BOND ANGLE DIHED IMPRP ELECT VDW BOUNDARY MISC KINETIC TOTAL TEMP POTENTIAL TOTAL3 TEMPAVG PRESSURE GPRESSURE VOLUME PRESSAVG GPRESSAVG
ENERGY: 16000 313.5643 1072.5459 553.8058 41.7402 -29131.1398 1523.4440 57.0012 0.0000 4157.3053 -21411.7329 248.5950 -25569.0382 -21386.1610 238.6160 -585.4250 -521.5708 74505.6752 2.2287 1.9031
TCL: Setting parameter langevinTemp to 260
TCL: Running for 1000 steps
ETITLE: TS BOND ANGLE DIHED IMPRP ELECT VDW BOUNDARY MISC KINETIC TOTAL TEMP POTENTIAL TOTAL3 TEMPAVG PRESSURE GPRESSURE VOLUME PRESSAVG GPRESSAVG
ENERGY: 16000 313.5643 1072.5459 553.8058 41.7402 -29131.1398 1523.4440 57.0012 0.0000 4156.7465 -21412.2917 248.5616 -25569.0382 -21389.6525 248.5616 -563.9005 -519.3537 74505.6752 -563.9005 -519.3537
TCL: Setting parameter langevinTemp to 270
TCL: Running for 1000 steps
ETITLE: TS BOND ANGLE DIHED IMPRP ELECT VDW BOUNDARY MISC KINETIC TOTAL TEMP POTENTIAL TOTAL3 TEMPAVG PRESSURE GPRESSURE VOLUME PRESSAVG GPRESSAVG
ENERGY: 18000 328.3965 1154.2664 594.5180 50.5372 -28456.0378 1318.4725 63.4655 0.0000 4467.8069 -20478.5747 267.1621 -24946.3816 -20449.9133 259.3612 -1114.6117 -1058.3346 75515.1915 -2.1487 -2.0312
TCL: Setting parameter langevinTemp to 280
TCL: Running for 1000 steps
ETITLE: TS BOND ANGLE DIHED IMPRP ELECT VDW BOUNDARY MISC KINETIC TOTAL TEMP POTENTIAL TOTAL3 TEMPAVG PRESSURE GPRESSURE VOLUME PRESSAVG GPRESSAVG
ENERGY: 18000 328.3965 1154.2664 594.5180 50.5372 -28456.0378 1318.4725 63.4655 0.0000 4467.2293 -20479.1523 267.1276 -24946.3815 -20454.9465 267.1276 -1102.1172 -1055.8368 75515.1915 -1102.1172 -1055.8368
TCL: Setting parameter langevinTemp to 290
TCL: Running for 1000 steps
ETITLE: TS BOND ANGLE DIHED IMPRP ELECT VDW BOUNDARY MISC KINETIC TOTAL TEMP POTENTIAL TOTAL3 TEMPAVG PRESSURE GPRESSURE VOLUME PRESSAVG GPRESSAVG
ENERGY: 20000 341.0918 1217.5526 593.4218 49.8013 -27716.3675 1274.9052 72.6207 0.0000 4805.9828 -19360.9912 287.3841 -24166.9740 -19332.6321 280.2524 -573.4564 -524.7712 76541.8915 2.6155 2.2482
TCL: Setting parameter langevinTemp to 300
TCL: Running for 40000 steps
ETITLE: TS BOND ANGLE DIHED IMPRP ELECT VDW BOUNDARY MISC KINETIC TOTAL TEMP POTENTIAL TOTAL3 TEMPAVG PRESSURE GPRESSURE VOLUME PRESSAVG GPRESSAVG
ENERGY: 20000 341.0918 1217.5526 593.4218 49.8013 -27716.3675 1274.9052 72.6207 0.0000 4805.3500 -19361.6241 287.3462 -24166.9740 -19334.4167 287.3462 -566.9295 -523.5677 76541.8915 -566.9295 -523.5677
ENERGY: 28000 345.6423 1272.2567 608.5010 50.6561 -27511.3040 1246.7688 62.3646 0.0000 4999.3941 -18925.7204 298.9495 -23925.1145 -18896.7518 297.7061 -529.8717 -487.3244 77038.6310 -0.6650 -0.7655
ENERGY: 36000 353.4088 1235.2004 623.1088 46.2950 -27535.5727 1321.8769 75.6159 0.0000 4968.5812 -18911.4858 297.1070 -23880.0670 -18882.5421 300.0589 517.6588 557.4848 76636.4698 -0.9119 -1.4082
ENERGY: 44000 346.7010 1240.2056 610.1103 44.6992 -27402.1753 1190.3021 70.4505 0.0000 5011.7611 -18887.9455 299.6890 -23899.7066 -18859.9807 299.1995 -431.9576 -394.2038 76918.2581 0.8024 0.8213
ENERGY: 52000 336.2945 1228.3195 607.3988 55.9682 -27370.5012 1191.5145 69.4366 0.0000 5052.4804 -18829.0888 302.1239 -23881.5691 -18794.6272 299.6502 -189.8498 -172.1756 77135.7716 2.4201 2.6826
ENERGY: 60000 334.8144 1174.6672 612.6974 43.8009 -27476.6820 1316.7699 68.3589 0.0000 4993.4047 -18932.1688 298.5914 -23925.5735 -18908.7064 300.0974 68.1155 87.0464 76348.7069 5.4814 5.6163
