Info: SIMULATION PARAMETERS:
Info: TIMESTEP               2
Info: NUMBER OF STEPS        0
Info: STEPS PER CYCLE        20
Info: PERIODIC CELL BASIS 1  43.2991 0 0
Info: PERIODIC CELL BASIS 2  0 48.5837 0
Info: PERIODIC CELL BASIS 3  0 0 36.2937
Info: PERIODIC CELL CENTER   0 0 0
Info: WRAPPING WATERS AROUND PERIODIC BOUNDARIES ON OUTPUT.
Info: FIRST LDB TIMESTEP     100
Info: LAST LDB TIMESTEP     -1
Info: HOM BACKGROUND SCALING 1
Info: PME BACKGROUND SCALING 1
Info: MIN ATOMS PER PATCH    40
Info: VELOCITY FILE          md.vel
Info: CENTER OF MASS MOVING INITIALLY? NO
Info: DIELECTRIC             1
Info: EXCLUDE                SCALED ONE-FOUR
Info: 1-4 ELECTROSTATICS SCALED BY 1
Info: MODIFIED 1-4 VDW PARAMETERS WILL BE USED
Info: DCD FILENAME           eq2.dcd
Info: DCD FREQUENCY          2000
Info: DCD FIRST STEP         2000
Info: DCD FILE WILL CONTAIN UNIT CELL DATA
Info: NO EXTENDED SYSTEM TRAJECTORY OUTPUT
Info: NO VELOCITY DCD OUTPUT
Info: NO FORCE DCD OUTPUT
Info: OUTPUT FILENAME        md
Info: RESTART FILENAME       md
Info: RESTART FREQUENCY      2000
Info: SWITCHING ACTIVE
Info: SWITCHING ON           8
Info: SWITCHING OFF          10
Info: PAIRLIST DISTANCE      12
Info: PAIRLIST SHRINK RATE   0.01
Info: PAIRLIST GROW RATE     0.01
Info: PAIRLIST TRIGGER       0.3
Info: PAIRLISTS PER CYCLE    2
Info: PAIRLISTS ENABLED
Info: MARGIN                 1
Info: HYDROGEN GROUP CUTOFF  2.5
Info: PATCH DIMENSION        15.5
Info: ENERGY OUTPUT STEPS    2000
Info: CROSSTERM ENERGY INCLUDED IN DIHEDRAL
Info: TIMING OUTPUT STEPS    20000
Info: HARMONIC CONSTRAINTS ACTIVE
Info: HARMONIC CONS EXP      2
Info: LANGEVIN DYNAMICS ACTIVE
Info: LANGEVIN TEMPERATURE   300
Info: LANGEVIN DAMPING COEFFICIENT IS 5 INVERSE PS
Info: LANGEVIN DYNAMICS NOT APPLIED TO HYDROGENS
Info: PARTICLE MESH EWALD (PME) ACTIVE
Info: PME TOLERANCE               1e-06
Info: PME EWALD COEFFICIENT       0.312341
Info: PME INTERPOLATION ORDER     4
Info: PME GRID DIMENSIONS         44 54 40
Info: PME MAXIMUM GRID SPACING    1
Info: FULL ELECTROSTATIC EVALUATION FREQUENCY      2
Info: USING VERLET I (r-RESPA) MTS SCHEME.
Info: C1 SPLITTING OF LONG RANGE ELECTROSTATICS
Info: PLACING ATOMS IN PATCHES BY HYDROGEN GROUPS
Info: RIGID BONDS TO HYDROGEN : ALL
Info:         ERROR TOLERANCE : 1e-08
Info:          MAX ITERATIONS : 100
Info: RIGID WATER USING SETTLE ALGORITHM
Info: RANDOM NUMBER SEED     150661
Info: USE HYDROGEN BONDS?    NO
Info: COORDINATE PDB         md.coor
Info: STRUCTURE FILE         ../md.psf
Info: PARAMETER file: CHARMM format!
Info: PARAMETERS             ../parameters/par_all27_prot_lipid_na.inp
Info: PARAMETERS             ../parameters/probe.prm
Info: USING ARITHMETIC MEAN TO COMBINE L-J SIGMA PARAMETERS
Info: SUMMARY OF PARAMETERS:
Info: 307 BONDS
Info: 770 ANGLES
Info: 1254 DIHEDRAL
Info: 81 IMPROPER
Info: 6 CROSSTERM
Info: 190 VDW
Info: 0 VDW_PAIRS
Info: 0 NBTHOLE_PAIRS
Info: STRUCTURE SUMMARY:
Info: 7880 ATOMS
Info: 5999 BONDS
Info: 6061 ANGLES
Info: 5599 DIHEDRALS
Info: 262 IMPROPERS
Info: 83 CROSSTERMS
Info: 0 EXCLUSIONS
Info: 706 CONSTRAINTS
Info: 6809 RIGID BONDS
Info: 16831 DEGREES OF FREEDOM
Info: 2871 HYDROGEN GROUPS
Info: 4 ATOMS IN LARGEST HYDROGEN GROUP
Info: 2871 MIGRATION GROUPS
Info: 4 ATOMS IN LARGEST MIGRATION GROUP
Info: TOTAL MASS = 48030.1 amu
Info: TOTAL CHARGE = -1.24797e-06 e
Info: MASS DENSITY = 1.04465 g/cm^3
Info: ATOM DENSITY = 0.103211 atoms/A^3
Info: REMOVING COM VELOCITY 0.139061 -0.0970864 -0.0203212
Info: NONBONDED TABLE R-SQUARED SPACING: 0.0625
Info: NONBONDED TABLE SIZE: 705 POINTS
TCL: Running for 1000 steps
ETITLE: TS BOND ANGLE DIHED IMPRP ELECT VDW BOUNDARY MISC KINETIC TOTAL TEMP POTENTIAL TOTAL3 TEMPAVG PRESSURE GPRESSURE VOLUME PRESSAVG GPRESSAVG
ENERGY: 0 334.4725 1174.8078 612.6516 43.8283 -27476.9155 1316.9384 136.7168 0.0000 4991.0631 -18866.4372 298.4513 -23857.5002 -18838.8102 298.4513 -192.4064 -158.4486 76348.5337 -192.4064 -158.4486
TCL: Setting parameter langevinTemp to 310
TCL: Running for 1000 steps
ETITLE: TS BOND ANGLE DIHED IMPRP ELECT VDW BOUNDARY MISC KINETIC TOTAL TEMP POTENTIAL TOTAL3 TEMPAVG PRESSURE GPRESSURE VOLUME PRESSAVG GPRESSAVG
ENERGY: 2000 346.4580 1279.2799 610.0852 54.3021 -27192.1527 1265.4494 109.7808 0.0000 5161.3722 -18365.4250 308.6353 -23526.7972 -18331.7421 302.4857 758.4536 786.8517 76348.5337 266.0785 265.9430
TCL: Setting parameter langevinTemp to 320
TCL: Running for 1000 steps
ETITLE: TS BOND ANGLE DIHED IMPRP ELECT VDW BOUNDARY MISC KINETIC TOTAL TEMP POTENTIAL TOTAL3 TEMPAVG PRESSURE GPRESSURE VOLUME PRESSAVG GPRESSAVG
ENERGY: 2000 346.4580 1279.2799 610.0852 54.3021 -27192.1527 1265.4494 109.7808 0.0000 5160.7151 -18366.0821 308.5960 -23526.7972 -18341.1237 308.5960 755.4330 790.6011 76348.5337 755.4330 790.6011
TCL: Setting parameter langevinTemp to 330
TCL: Running for 1000 steps
ETITLE: TS BOND ANGLE DIHED IMPRP ELECT VDW BOUNDARY MISC KINETIC TOTAL TEMP POTENTIAL TOTAL3 TEMPAVG PRESSURE GPRESSURE VOLUME PRESSAVG GPRESSAVG
ENERGY: 4000 385.5341 1278.3152 639.4729 57.3577 -26797.2633 1260.4615 93.4347 0.0000 5465.8253 -17616.8620 326.8408 -23082.6873 -17585.5423 319.4785 1046.9075 1076.2866 76348.5337 553.9418 554.1839
TCL: Setting parameter langevinTemp to 340
TCL: Running for 1000 steps
ETITLE: TS BOND ANGLE DIHED IMPRP ELECT VDW BOUNDARY MISC KINETIC TOTAL TEMP POTENTIAL TOTAL3 TEMPAVG PRESSURE GPRESSURE VOLUME PRESSAVG GPRESSAVG
ENERGY: 4000 385.5341 1278.3152 639.4729 57.3577 -26797.2633 1260.4615 93.4347 0.0000 5465.1258 -17617.5615 326.7989 -23082.6873 -17587.7587 326.7989 1037.4412 1075.8016 76348.5337 1037.4412 1075.8016
TCL: Setting parameter langevinTemp to 350
TCL: Running for 1000 steps
ETITLE: TS BOND ANGLE DIHED IMPRP ELECT VDW BOUNDARY MISC KINETIC TOTAL TEMP POTENTIAL TOTAL3 TEMPAVG PRESSURE GPRESSURE VOLUME PRESSAVG GPRESSAVG
ENERGY: 6000 404.4019 1410.3690 628.6210 59.0012 -26289.8201 1251.3627 99.1603 0.0000 5766.7863 -16670.1178 344.8374 -22436.9041 -16633.5443 341.9302 1559.8512 1598.1010 76348.5337 963.4662 963.6253
TCL: Setting parameter langevinTemp to 360
TCL: Running for 1000 steps
ETITLE: TS BOND ANGLE DIHED IMPRP ELECT VDW BOUNDARY MISC KINETIC TOTAL TEMP POTENTIAL TOTAL3 TEMPAVG PRESSURE GPRESSURE VOLUME PRESSAVG GPRESSAVG
ENERGY: 6000 404.4019 1410.3690 628.6210 59.0012 -26289.8201 1251.3627 99.1603 0.0000 5766.0245 -16670.8796 344.7918 -22436.9041 -16640.9400 344.7918 1570.7333 1602.3822 76348.5337 1570.7333 1602.3822
TCL: Setting parameter langevinTemp to 370
TCL: Running for 1000 steps
ETITLE: TS BOND ANGLE DIHED IMPRP ELECT VDW BOUNDARY MISC KINETIC TOTAL TEMP POTENTIAL TOTAL3 TEMPAVG PRESSURE GPRESSURE VOLUME PRESSAVG GPRESSAVG
ENERGY: 8000 389.7636 1427.1408 647.1626 46.6630 -25820.6393 1055.8719 114.0127 0.0000 6229.8147 -15910.2100 372.5251 -22140.0247 -15872.9274 360.0937 1614.6620 1657.0808 76348.5337 1290.0625 1290.1758
TCL: Setting parameter langevinTemp to 380
TCL: Running for 1000 steps
ETITLE: TS BOND ANGLE DIHED IMPRP ELECT VDW BOUNDARY MISC KINETIC TOTAL TEMP POTENTIAL TOTAL3 TEMPAVG PRESSURE GPRESSURE VOLUME PRESSAVG GPRESSAVG
ENERGY: 8000 389.7636 1427.1408 647.1626 46.6630 -25820.6393 1055.8719 114.0127 0.0000 6229.0223 -15911.0024 372.4778 -22140.0247 -15870.8530 372.4778 1606.6646 1654.5992 76348.5337 1606.6646 1654.5992
TCL: Setting parameter langevinTemp to 390
TCL: Running for 1000 steps
ETITLE: TS BOND ANGLE DIHED IMPRP ELECT VDW BOUNDARY MISC KINETIC TOTAL TEMP POTENTIAL TOTAL3 TEMPAVG PRESSURE GPRESSURE VOLUME PRESSAVG GPRESSAVG
ENERGY: 10000 415.0649 1578.6509 690.7120 55.0891 -25376.1567 1013.9549 110.0488 0.0000 6506.1961 -15006.4399 389.0520 -21512.6360 -14964.7191 383.0362 1508.8770 1539.4536 76348.5337 1846.0880 1845.7058
TCL: Setting parameter langevinTemp to 400
TCL: Running for 1000 steps
ETITLE: TS BOND ANGLE DIHED IMPRP ELECT VDW BOUNDARY MISC KINETIC TOTAL TEMP POTENTIAL TOTAL3 TEMPAVG PRESSURE GPRESSURE VOLUME PRESSAVG GPRESSAVG
ENERGY: 10000 415.0649 1578.6509 690.7120 55.0891 -25376.1567 1013.9549 110.0488 0.0000 6505.3627 -15007.2733 389.0021 -21512.6360 -14970.0821 389.0021 1489.1933 1541.8358 76348.5337 1489.1933 1541.8358
TCL: Setting parameter langevinTemp to 410
TCL: Running for 1000 steps
ETITLE: TS BOND ANGLE DIHED IMPRP ELECT VDW BOUNDARY MISC KINETIC TOTAL TEMP POTENTIAL TOTAL3 TEMPAVG PRESSURE GPRESSURE VOLUME PRESSAVG GPRESSAVG
ENERGY: 12000 406.8474 1541.6491 685.5460 61.7928 -25207.4797 1084.0537 106.9568 0.0000 6840.5919 -14480.0420 409.0479 -21320.6339 -14430.2036 403.7185 2606.7948 2657.2038 76348.5337 2293.1029 2293.0385
TCL: Setting parameter langevinTemp to 420
TCL: Running for 1000 steps
ETITLE: TS BOND ANGLE DIHED IMPRP ELECT VDW BOUNDARY MISC KINETIC TOTAL TEMP POTENTIAL TOTAL3 TEMPAVG PRESSURE GPRESSURE VOLUME PRESSAVG GPRESSAVG
ENERGY: 12000 406.8474 1541.6491 685.5460 61.7928 -25207.4797 1084.0537 106.9568 0.0000 6839.6955 -14480.9384 408.9943 -21320.6339 -14441.3379 408.9943 2624.0349 2664.0677 76348.5337 2624.0349 2664.0677
TCL: Setting parameter langevinTemp to 430
TCL: Running for 1000 steps
ETITLE: TS BOND ANGLE DIHED IMPRP ELECT VDW BOUNDARY MISC KINETIC TOTAL TEMP POTENTIAL TOTAL3 TEMPAVG PRESSURE GPRESSURE VOLUME PRESSAVG GPRESSAVG
ENERGY: 14000 483.9976 1718.8605 693.9916 79.9977 -24777.7307 1125.8096 133.7522 0.0000 7208.2315 -13333.0901 431.0317 -20541.3215 -13302.1903 422.6883 2738.0778 2783.0729 76348.5337 2715.0443 2715.3382
TCL: Setting parameter langevinTemp to 440
TCL: Running for 1000 steps
ETITLE: TS BOND ANGLE DIHED IMPRP ELECT VDW BOUNDARY MISC KINETIC TOTAL TEMP POTENTIAL TOTAL3 TEMPAVG PRESSURE GPRESSURE VOLUME PRESSAVG GPRESSAVG
ENERGY: 14000 483.9976 1718.8605 693.9916 79.9977 -24777.7307 1125.8096 133.7522 0.0000 7207.2885 -13334.0331 430.9753 -20541.3215 -13299.0109 430.9753 2743.8409 2781.4488 76348.5337 2743.8409 2781.4488
TCL: Setting parameter langevinTemp to 450
TCL: Running for 1000 steps
ETITLE: TS BOND ANGLE DIHED IMPRP ELECT VDW BOUNDARY MISC KINETIC TOTAL TEMP POTENTIAL TOTAL3 TEMPAVG PRESSURE GPRESSURE VOLUME PRESSAVG GPRESSAVG
ENERGY: 16000 472.9197 1707.0244 724.0972 76.1574 -24429.1334 1018.4292 133.3739 0.0000 7564.9015 -12732.2303 452.3595 -20297.1317 -12686.3829 441.6522 3381.8823 3409.1219 76348.5337 3046.6365 3046.5410
TCL: Setting parameter langevinTemp to 460
TCL: Running for 1000 steps
ETITLE: TS BOND ANGLE DIHED IMPRP ELECT VDW BOUNDARY MISC KINETIC TOTAL TEMP POTENTIAL TOTAL3 TEMPAVG PRESSURE GPRESSURE VOLUME PRESSAVG GPRESSAVG
ENERGY: 16000 472.9197 1707.0244 724.0972 76.1574 -24429.1334 1018.4292 133.3739 0.0000 7563.9505 -12733.1812 452.3027 -20297.1317 -12692.8849 452.3027 3359.2038 3410.7142 76348.5337 3359.2038 3410.7142
TCL: Setting parameter langevinTemp to 470
TCL: Running for 1000 steps
ETITLE: TS BOND ANGLE DIHED IMPRP ELECT VDW BOUNDARY MISC KINETIC TOTAL TEMP POTENTIAL TOTAL3 TEMPAVG PRESSURE GPRESSURE VOLUME PRESSAVG GPRESSAVG
ENERGY: 18000 518.8084 1830.2367 709.0432 75.9469 -24280.9950 1150.5010 123.4377 0.0000 7720.1648 -12152.8563 461.6438 -19873.0211 -12108.2106 461.4773 4090.9164 4097.1130 76348.5337 3464.1704 3464.1178
TCL: Setting parameter langevinTemp to 480
TCL: Running for 1000 steps
ETITLE: TS BOND ANGLE DIHED IMPRP ELECT VDW BOUNDARY MISC KINETIC TOTAL TEMP POTENTIAL TOTAL3 TEMPAVG PRESSURE GPRESSURE VOLUME PRESSAVG GPRESSAVG
ENERGY: 18000 518.8084 1830.2367 709.0432 75.9469 -24280.9950 1150.5010 123.4377 0.0000 7719.1301 -12153.8910 461.5820 -19873.0211 -12114.5104 461.5820 4087.6599 4099.1794 76348.5337 4087.6599 4099.1794
TCL: Setting parameter langevinTemp to 490
TCL: Running for 1000 steps
ETITLE: TS BOND ANGLE DIHED IMPRP ELECT VDW BOUNDARY MISC KINETIC TOTAL TEMP POTENTIAL TOTAL3 TEMPAVG PRESSURE GPRESSURE VOLUME PRESSAVG GPRESSAVG
ENERGY: 20000 490.4419 1805.3927 724.3171 71.2836 -23836.1765 1083.5959 132.6247 0.0000 8273.7563 -11254.7644 494.7470 -19528.5207 -11203.8550 481.8779 3975.6804 4038.7005 76348.5337 3995.0321 3995.2877
TCL: Setting parameter langevinTemp to 500
TCL: Running for 1000 steps
ETITLE: TS BOND ANGLE DIHED IMPRP ELECT VDW BOUNDARY MISC KINETIC TOTAL TEMP POTENTIAL TOTAL3 TEMPAVG PRESSURE GPRESSURE VOLUME PRESSAVG GPRESSAVG
ENERGY: 20000 490.4419 1805.3927 724.3171 71.2836 -23836.1765 1083.5959 132.6247 0.0000 8272.6862 -11255.8344 494.6830 -19528.5207 -11211.9505 494.6830 4013.9848 4043.0921 76348.5337 4013.9848 4043.0921
TCL: Setting parameter langevinTemp to 510
TCL: Running for 1000 steps
ETITLE: TS BOND ANGLE DIHED IMPRP ELECT VDW BOUNDARY MISC KINETIC TOTAL TEMP POTENTIAL TOTAL3 TEMPAVG PRESSURE GPRESSURE VOLUME PRESSAVG GPRESSAVG
ENERGY: 22000 545.9271 1897.2458 758.1428 90.5056 -23368.4278 892.7609 145.7305 0.0000 8609.8465 -10428.2686 514.8443 -19038.1151 -10373.0689 500.7307 4039.4160 4067.2392 76348.5337 4381.2924 4381.4865
TCL: Setting parameter langevinTemp to 520
TCL: Running for 1000 steps
ETITLE: TS BOND ANGLE DIHED IMPRP ELECT VDW BOUNDARY MISC KINETIC TOTAL TEMP POTENTIAL TOTAL3 TEMPAVG PRESSURE GPRESSURE VOLUME PRESSAVG GPRESSAVG
ENERGY: 22000 545.9271 1897.2458 758.1428 90.5056 -23368.4278 892.7609 145.7305 0.0000 8608.7442 -10429.3709 514.7783 -19038.1151 -10387.6326 514.7783 4027.2614 4075.1424 76348.5337 4027.2614 4075.1424
TCL: Setting parameter langevinTemp to 530
TCL: Running for 1000 steps
ETITLE: TS BOND ANGLE DIHED IMPRP ELECT VDW BOUNDARY MISC KINETIC TOTAL TEMP POTENTIAL TOTAL3 TEMPAVG PRESSURE GPRESSURE VOLUME PRESSAVG GPRESSAVG
ENERGY: 24000 592.4312 2022.1540 782.3879 81.0444 -23334.8146 962.9661 149.1775 0.0000 8810.4133 -9934.2401 526.8376 -18744.6534 -9893.3610 521.9570 4731.5342 4770.7196 76348.5337 4891.3685 4891.4298
TCL: Setting parameter langevinTemp to 540
TCL: Running for 1000 steps
ETITLE: TS BOND ANGLE DIHED IMPRP ELECT VDW BOUNDARY MISC KINETIC TOTAL TEMP POTENTIAL TOTAL3 TEMPAVG PRESSURE GPRESSURE VOLUME PRESSAVG GPRESSAVG
ENERGY: 24000 592.4312 2022.1540 782.3879 81.0444 -23334.8146 962.9661 149.1775 0.0000 8809.2853 -9935.3681 526.7701 -18744.6534 -9889.9442 526.7701 4731.7739 4766.2326 76348.5337 4731.7739 4766.2326
TCL: Setting parameter langevinTemp to 550
TCL: Running for 1000 steps
ETITLE: TS BOND ANGLE DIHED IMPRP ELECT VDW BOUNDARY MISC KINETIC TOTAL TEMP POTENTIAL TOTAL3 TEMPAVG PRESSURE GPRESSURE VOLUME PRESSAVG GPRESSAVG
ENERGY: 26000 529.3008 2043.0368 796.3501 75.2684 -23035.1210 1068.7383 171.1915 0.0000 9161.2891 -9189.9459 547.8189 -18351.2350 -9139.1805 541.1464 5238.2802 5276.2217 76348.5337 5037.0583 5037.6026
TCL: Setting parameter langevinTemp to 560
TCL: Running for 1000 steps
ETITLE: TS BOND ANGLE DIHED IMPRP ELECT VDW BOUNDARY MISC KINETIC TOTAL TEMP POTENTIAL TOTAL3 TEMPAVG PRESSURE GPRESSURE VOLUME PRESSAVG GPRESSAVG
ENERGY: 26000 529.3008 2043.0368 796.3501 75.2684 -23035.1210 1068.7383 171.1915 0.0000 9160.1119 -9191.1231 547.7486 -18351.2350 -9136.3082 547.7486 5243.8383 5274.9239 76348.5337 5243.8383 5274.9239
TCL: Setting parameter langevinTemp to 570
TCL: Running for 1000 steps
ETITLE: TS BOND ANGLE DIHED IMPRP ELECT VDW BOUNDARY MISC KINETIC TOTAL TEMP POTENTIAL TOTAL3 TEMPAVG PRESSURE GPRESSURE VOLUME PRESSAVG GPRESSAVG
ENERGY: 28000 565.9515 2070.2192 793.3375 84.6277 -22912.8998 1043.0956 138.5423 0.0000 9425.3546 -8791.7712 563.6093 -18217.1259 -8729.0804 560.0638 5786.4762 5865.6086 76348.5337 5671.2522 5671.3609
TCL: Setting parameter langevinTemp to 580
TCL: Running for 1000 steps
ETITLE: TS BOND ANGLE DIHED IMPRP ELECT VDW BOUNDARY MISC KINETIC TOTAL TEMP POTENTIAL TOTAL3 TEMPAVG PRESSURE GPRESSURE VOLUME PRESSAVG GPRESSAVG
ENERGY: 28000 565.9515 2070.2192 793.3375 84.6277 -22912.8998 1043.0956 138.5423 0.0000 9424.1258 -8793.0001 563.5358 -18217.1259 -8742.5802 563.5358 5830.6377 5873.1374 76348.5337 5830.6377 5873.1374
TCL: Setting parameter langevinTemp to 590
TCL: Running for 1000 steps
ETITLE: TS BOND ANGLE DIHED IMPRP ELECT VDW BOUNDARY MISC KINETIC TOTAL TEMP POTENTIAL TOTAL3 TEMPAVG PRESSURE GPRESSURE VOLUME PRESSAVG GPRESSAVG
ENERGY: 30000 638.9298 2186.4284 805.3627 91.9440 -22573.4778 935.6889 165.7886 0.0000 9901.4424 -7847.8930 592.0780 -17749.3354 -7790.2113 581.7432 5045.4960 5098.6163 76348.5337 6034.0848 6034.1044
TCL: Setting parameter langevinTemp to 600
TCL: Running for 300000 steps
ETITLE: TS BOND ANGLE DIHED IMPRP ELECT VDW BOUNDARY MISC KINETIC TOTAL TEMP POTENTIAL TOTAL3 TEMPAVG PRESSURE GPRESSURE VOLUME PRESSAVG GPRESSAVG
ENERGY: 30000 638.9298 2186.4284 805.3627 91.9440 -22573.4778 935.6889 165.7886 0.0000 9900.1822 -7849.1532 592.0027 -17749.3354 -7802.7484 592.0027 5060.1414 5103.4357 76348.5337 5060.1414 5103.4357
ENERGY: 90000 596.0122 2312.7915 827.0707 117.5829 -22423.8363 1037.5169 149.2812 0.0000 10103.5447 -7280.0362 604.1631 -17383.5809 -7222.7180 600.3352 5637.5139 5694.1392 76348.5337 6366.3761 6366.3494
ENERGY: 150000 664.4105 2263.9246 836.0402 91.9944 -22579.6318 1125.9042 163.7221 0.0000 9962.7930 -7470.8428 595.7466 -17433.6358 -7412.0540 596.9207 6681.0909 6754.6900 76348.5337 6419.3595 6419.2712
ENERGY: 210000 579.6662 2173.4075 816.3830 120.3202 -22505.8448 1097.6256 164.0717 0.0000 10130.8812 -7423.4893 605.7978 -17554.3705 -7364.3911 603.0432 6690.4764 6706.1364 76348.5337 6518.8529 6518.7743
ENERGY: 270000 611.8776 2210.4328 799.9214 94.5895 -22652.0991 1215.7191 165.9809 0.0000 9830.7152 -7722.8628 587.8487 -17553.5779 -7674.8062 596.4355 6101.9535 6124.7609 76348.5337 6348.2883 6348.6731
ENERGY: 330000 600.1859 2216.2912 813.3495 80.4496 -22822.2444 1299.7574 177.2645 0.0000 10111.6857 -7523.2604 604.6500 -17634.9462 -7466.6429 597.0678 6603.0929 6656.7552 76348.5337 6287.2484 6286.7855
TCL: Setting parameter langevinTemp to 570
TCL: Running for 1000 steps
ETITLE: TS BOND ANGLE DIHED IMPRP ELECT VDW BOUNDARY MISC KINETIC TOTAL TEMP POTENTIAL TOTAL3 TEMPAVG PRESSURE GPRESSURE VOLUME PRESSAVG GPRESSAVG
ENERGY: 330000 600.1859 2216.2912 813.3495 80.4496 -22822.2444 1299.7574 177.2645 0.0000 10110.3929 -7524.5533 604.5727 -17634.9462 -7469.0222 604.5727 6612.5856 6653.8325 76348.5337 6612.5856 6653.8325
TCL: Setting parameter langevinTemp to 540
TCL: Running for 1000 steps
ETITLE: TS BOND ANGLE DIHED IMPRP ELECT VDW BOUNDARY MISC KINETIC TOTAL TEMP POTENTIAL TOTAL3 TEMPAVG PRESSURE GPRESSURE VOLUME PRESSAVG GPRESSAVG
ENERGY: 332000 540.6785 2063.4067 783.0503 99.2231 -23116.5685 1098.4106 144.9508 0.0000 9029.3918 -9357.4567 539.9319 -18386.8485 -9305.7837 563.7652 5870.4749 5911.8545 76348.5337 5504.4786 5504.7204
TCL: Setting parameter langevinTemp to 510
TCL: Running for 1000 steps
ETITLE: TS BOND ANGLE DIHED IMPRP ELECT VDW BOUNDARY MISC KINETIC TOTAL TEMP POTENTIAL TOTAL3 TEMPAVG PRESSURE GPRESSURE VOLUME PRESSAVG GPRESSAVG
ENERGY: 332000 540.6785 2063.4067 783.0503 99.2231 -23116.5685 1098.4106 144.9508 0.0000 9028.2189 -9358.6296 539.8617 -18386.8485 -9313.3369 539.8617 5873.3544 5914.1278 76348.5337 5873.3544 5914.1278
TCL: Setting parameter langevinTemp to 480
TCL: Running for 1000 steps
ETITLE: TS BOND ANGLE DIHED IMPRP ELECT VDW BOUNDARY MISC KINETIC TOTAL TEMP POTENTIAL TOTAL3 TEMPAVG PRESSURE GPRESSURE VOLUME PRESSAVG GPRESSAVG
ENERGY: 334000 534.3607 1908.5346 757.3888 74.4673 -23901.8155 965.1580 127.3543 0.0000 8166.4239 -11368.1279 488.3288 -19534.5517 -11321.6830 506.0470 3751.9115 3763.0921 76348.5337 4286.4339 4286.3624
TCL: Setting parameter langevinTemp to 450
TCL: Running for 1000 steps
ETITLE: TS BOND ANGLE DIHED IMPRP ELECT VDW BOUNDARY MISC KINETIC TOTAL TEMP POTENTIAL TOTAL3 TEMPAVG PRESSURE GPRESSURE VOLUME PRESSAVG GPRESSAVG
ENERGY: 334000 534.3607 1908.5346 757.3888 74.4673 -23901.8155 965.1580 127.3543 0.0000 8165.3818 -11369.1699 488.2665 -19534.5517 -11323.4466 488.2665 3715.4345 3762.0651 76348.5337 3715.4345 3762.0651
TCL: Setting parameter langevinTemp to 420
TCL: Running for 1000 steps
ETITLE: TS BOND ANGLE DIHED IMPRP ELECT VDW BOUNDARY MISC KINETIC TOTAL TEMP POTENTIAL TOTAL3 TEMPAVG PRESSURE GPRESSURE VOLUME PRESSAVG GPRESSAVG
ENERGY: 336000 431.9175 1678.8014 670.1731 64.6003 -25048.3499 1083.9488 108.8377 0.0000 7054.4607 -13955.6103 421.8366 -21010.0710 -13910.4796 444.8467 2293.8710 2329.9396 76348.5337 2881.5510 2881.6408
TCL: Setting parameter langevinTemp to 390
TCL: Running for 1000 steps
ETITLE: TS BOND ANGLE DIHED IMPRP ELECT VDW BOUNDARY MISC KINETIC TOTAL TEMP POTENTIAL TOTAL3 TEMPAVG PRESSURE GPRESSURE VOLUME PRESSAVG GPRESSAVG
ENERGY: 336000 431.9175 1678.8014 670.1731 64.6003 -25048.3499 1083.9488 108.8377 0.0000 7053.5178 -13956.5532 421.7802 -21010.0710 -13919.4720 421.7802 2301.8807 2333.0380 76348.5337 2301.8807 2333.0380
TCL: Setting parameter langevinTemp to 360
TCL: Running for 1000 steps
ETITLE: TS BOND ANGLE DIHED IMPRP ELECT VDW BOUNDARY MISC KINETIC TOTAL TEMP POTENTIAL TOTAL3 TEMPAVG PRESSURE GPRESSURE VOLUME PRESSAVG GPRESSAVG
ENERGY: 338000 407.0074 1416.8916 657.9914 56.6260 -26070.4396 1159.8894 107.8742 0.0000 6063.0709 -16201.0887 362.5543 -22264.1596 -16161.6728 385.0899 1999.4074 2027.8865 76348.5337 1753.2405 1753.5702
TCL: Setting parameter langevinTemp to 330
TCL: Running for 1000 steps
ETITLE: TS BOND ANGLE DIHED IMPRP ELECT VDW BOUNDARY MISC KINETIC TOTAL TEMP POTENTIAL TOTAL3 TEMPAVG PRESSURE GPRESSURE VOLUME PRESSAVG GPRESSAVG
ENERGY: 338000 407.0074 1416.8916 657.9914 56.6260 -26070.4396 1159.8894 107.8742 0.0000 6062.3169 -16201.8427 362.5093 -22264.1596 -16167.9204 362.5093 1994.9402 2030.7586 76348.5337 1994.9402 2030.7586
TCL: Setting parameter langevinTemp to 300
TCL: Running for 1000 steps
