Info: SIMULATION PARAMETERS:
Info: TIMESTEP               2
Info: NUMBER OF STEPS        0
Info: STEPS PER CYCLE        20
Info: PERIODIC CELL BASIS 1  43.2991 0 0
Info: PERIODIC CELL BASIS 2  0 48.5837 0
Info: PERIODIC CELL BASIS 3  0 0 36.2937
Info: PERIODIC CELL CENTER   0 0 0
Info: WRAPPING WATERS AROUND PERIODIC BOUNDARIES ON OUTPUT.
Info: FIRST LDB TIMESTEP     100
Info: LAST LDB TIMESTEP     -1
Info: HOM BACKGROUND SCALING 1
Info: PME BACKGROUND SCALING 1
Info: MIN ATOMS PER PATCH    40
Info: VELOCITY FILE          md.vel
Info: CENTER OF MASS MOVING INITIALLY? NO
Info: DIELECTRIC             1
Info: EXCLUDE                SCALED ONE-FOUR
Info: 1-4 ELECTROSTATICS SCALED BY 1
Info: MODIFIED 1-4 VDW PARAMETERS WILL BE USED
Info: DCD FILENAME           eq3.dcd
Info: DCD FREQUENCY          2000
Info: DCD FIRST STEP         2000
Info: DCD FILE WILL CONTAIN UNIT CELL DATA
Info: NO EXTENDED SYSTEM TRAJECTORY OUTPUT
Info: NO VELOCITY DCD OUTPUT
Info: NO FORCE DCD OUTPUT
Info: OUTPUT FILENAME        md
Info: RESTART FILENAME       md
Info: RESTART FREQUENCY      2000
Info: SWITCHING ACTIVE
Info: SWITCHING ON           8
Info: SWITCHING OFF          10
Info: PAIRLIST DISTANCE      12
Info: PAIRLIST SHRINK RATE   0.01
Info: PAIRLIST GROW RATE     0.01
Info: PAIRLIST TRIGGER       0.3
Info: PAIRLISTS PER CYCLE    2
Info: PAIRLISTS ENABLED
Info: MARGIN                 1
Info: HYDROGEN GROUP CUTOFF  2.5
Info: PATCH DIMENSION        15.5
Info: ENERGY OUTPUT STEPS    2000
Info: CROSSTERM ENERGY INCLUDED IN DIHEDRAL
Info: TIMING OUTPUT STEPS    20000
Info: LANGEVIN DYNAMICS ACTIVE
Info: LANGEVIN TEMPERATURE   300
Info: LANGEVIN DAMPING COEFFICIENT IS 5 INVERSE PS
Info: LANGEVIN DYNAMICS NOT APPLIED TO HYDROGENS
Info: LANGEVIN PISTON PRESSURE CONTROL ACTIVE
Info:        TARGET PRESSURE IS 1.01325 BAR
Info:     OSCILLATION PERIOD IS 100 FS
Info:             DECAY TIME IS 50 FS
Info:     PISTON TEMPERATURE IS 300 K
Info:       PRESSURE CONTROL IS GROUP-BASED
Info:    INITIAL STRAIN RATE IS 0 0 0
Info:       CELL FLUCTUATION IS ISOTROPIC
Info: PARTICLE MESH EWALD (PME) ACTIVE
Info: PME TOLERANCE               1e-06
Info: PME EWALD COEFFICIENT       0.312341
Info: PME INTERPOLATION ORDER     4
Info: PME GRID DIMENSIONS         44 54 40
Info: PME MAXIMUM GRID SPACING    1
Info: FULL ELECTROSTATIC EVALUATION FREQUENCY      2
Info: USING VERLET I (r-RESPA) MTS SCHEME.
Info: C1 SPLITTING OF LONG RANGE ELECTROSTATICS
Info: PLACING ATOMS IN PATCHES BY HYDROGEN GROUPS
Info: RIGID BONDS TO HYDROGEN : ALL
Info:         ERROR TOLERANCE : 1e-08
Info:          MAX ITERATIONS : 100
Info: RIGID WATER USING SETTLE ALGORITHM
Info: RANDOM NUMBER SEED     150661
Info: USE HYDROGEN BONDS?    NO
Info: COORDINATE PDB         md.coor
Info: STRUCTURE FILE         ../md.psf
Info: PARAMETER file: CHARMM format!
Info: PARAMETERS             ../parameters/par_all27_prot_lipid_na.inp
Info: PARAMETERS             ../parameters/probe.prm
Info: USING ARITHMETIC MEAN TO COMBINE L-J SIGMA PARAMETERS
Info: SUMMARY OF PARAMETERS:
Info: 307 BONDS
Info: 770 ANGLES
Info: 1254 DIHEDRAL
Info: 81 IMPROPER
Info: 6 CROSSTERM
Info: 190 VDW
Info: 0 VDW_PAIRS
Info: 0 NBTHOLE_PAIRS
Info: STRUCTURE SUMMARY:
Info: 7880 ATOMS
Info: 5999 BONDS
Info: 6061 ANGLES
Info: 5599 DIHEDRALS
Info: 262 IMPROPERS
Info: 83 CROSSTERMS
Info: 0 EXCLUSIONS
Info: 6809 RIGID BONDS
Info: 16831 DEGREES OF FREEDOM
Info: 2871 HYDROGEN GROUPS
Info: 4 ATOMS IN LARGEST HYDROGEN GROUP
Info: 2871 MIGRATION GROUPS
Info: 4 ATOMS IN LARGEST MIGRATION GROUP
Info: TOTAL MASS = 48030.1 amu
Info: TOTAL CHARGE = -1.24797e-06 e
Info: MASS DENSITY = 1.04465 g/cm^3
Info: ATOM DENSITY = 0.103211 atoms/A^3
Info: REMOVING COM VELOCITY -0.0140607 -0.0966674 -0.0125499
Info: NONBONDED TABLE R-SQUARED SPACING: 0.0625
Info: NONBONDED TABLE SIZE: 705 POINTS
TCL: Running for 300000 steps
ETITLE: TS BOND ANGLE DIHED IMPRP ELECT VDW BOUNDARY MISC KINETIC TOTAL TEMP POTENTIAL TOTAL3 TEMPAVG PRESSURE GPRESSURE VOLUME PRESSAVG GPRESSAVG
ENERGY: 0 341.3429 1223.3130 595.8241 52.9246 -27265.3626 1206.2298 0.0000 0.0000 5091.3294 -18754.3989 304.4470 -23845.7283 -18725.5834 304.4470 487.9301 520.1094 76348.5337 487.9301 520.1094
ENERGY: 60000 339.5184 1237.9815 583.5146 46.9544 -27550.0357 1275.6744 0.0000 0.0000 5043.8667 -19022.5258 301.6088 -24066.3925 -18995.8751 299.6055 -40.7143 -19.7633 76469.1086 5.4865 5.3903
ENERGY: 120000 337.1526 1195.2933 584.6835 54.8178 -27520.9802 1245.4213 0.0000 0.0000 4928.7340 -19174.8777 294.7242 -24103.6117 -19150.2909 297.5047 -32.0392 14.4704 76875.4516 5.7774 6.0496
ENERGY: 180000 357.3456 1229.9781 595.4509 53.7538 -27536.4552 1281.9122 0.0000 0.0000 4919.0837 -19098.9310 294.1472 -24018.0146 -19073.9724 298.3469 8.9828 47.3484 77055.8107 -2.2809 -1.9874
ENERGY: 240000 346.5722 1241.6857 600.6122 50.1261 -27621.7904 1274.7126 0.0000 0.0000 5050.4022 -19057.6793 301.9996 -24108.0815 -19031.0049 298.9233 -475.9845 -434.0235 77052.8757 -6.0691 -6.3097
ENERGY: 300000 330.0251 1236.8349 580.5150 51.8398 -27526.2884 1293.7105 0.0000 0.0000 5140.8173 -18892.5458 307.4062 -24033.3631 -18862.0317 300.1362 453.2107 466.3217 76987.3572 -3.1026 -2.9492
