Info: SIMULATION PARAMETERS:
Info: TIMESTEP               1
Info: NUMBER OF STEPS        0
Info: STEPS PER CYCLE        20
Info: PERIODIC CELL BASIS 1  43.5096 0 0
Info: PERIODIC CELL BASIS 2  0 48.8198 0
Info: PERIODIC CELL BASIS 3  0 0 36.4701
Info: PERIODIC CELL CENTER   0 0 0
Info: WRAPPING WATERS AROUND PERIODIC BOUNDARIES ON OUTPUT.
Info: FIRST LDB TIMESTEP     100
Info: LAST LDB TIMESTEP     -1
Info: HOM BACKGROUND SCALING 1
Info: PME BACKGROUND SCALING 1
Info: MIN ATOMS PER PATCH    40
Info: INITIAL TEMPERATURE    0
Info: CENTER OF MASS MOVING INITIALLY? NO
Info: DIELECTRIC             1
Info: EXCLUDE                SCALED ONE-FOUR
Info: 1-4 ELECTROSTATICS SCALED BY 1
Info: MODIFIED 1-4 VDW PARAMETERS WILL BE USED
Info: NO DCD TRAJECTORY OUTPUT
Info: NO EXTENDED SYSTEM TRAJECTORY OUTPUT
Info: NO VELOCITY DCD OUTPUT
Info: NO FORCE DCD OUTPUT
Info: OUTPUT FILENAME        md
Info: RESTART FILENAME       md
Info: RESTART FREQUENCY      10000
Info: SWITCHING ACTIVE
Info: SWITCHING ON           8
Info: SWITCHING OFF          10
Info: PAIRLIST DISTANCE      12
Info: PAIRLIST SHRINK RATE   0.01
Info: PAIRLIST GROW RATE     0.01
Info: PAIRLIST TRIGGER       0.3
Info: PAIRLISTS PER CYCLE    2
Info: PAIRLISTS ENABLED
Info: MARGIN                 1
Info: HYDROGEN GROUP CUTOFF  2.5
Info: PATCH DIMENSION        15.5
Info: CROSSTERM ENERGY INCLUDED IN DIHEDRAL
Info: TIMING OUTPUT STEPS    100
Info: HARMONIC CONSTRAINTS ACTIVE
Info: HARMONIC CONS EXP      2
Info: PARTICLE MESH EWALD (PME) ACTIVE
Info: PME TOLERANCE               1e-06
Info: PME EWALD COEFFICIENT       0.312341
Info: PME INTERPOLATION ORDER     4
Info: PME GRID DIMENSIONS         44 54 40
Info: PME MAXIMUM GRID SPACING    1
Info: FULL ELECTROSTATIC EVALUATION FREQUENCY      1
Info: USING VERLET I (r-RESPA) MTS SCHEME.
Info: C1 SPLITTING OF LONG RANGE ELECTROSTATICS
Info: PLACING ATOMS IN PATCHES BY HYDROGEN GROUPS
Info: RANDOM NUMBER SEED     12345
Info: USE HYDROGEN BONDS?    NO
Info: COORDINATE PDB         ../md.pdb
Info: STRUCTURE FILE         ../md.psf
Info: PARAMETER file: CHARMM format!
Info: PARAMETERS             ../parameters/par_all27_prot_lipid_na.inp
Info: PARAMETERS             ../parameters/probe.prm
Info: USING ARITHMETIC MEAN TO COMBINE L-J SIGMA PARAMETERS
Info: SUMMARY OF PARAMETERS:
Info: 307 BONDS
Info: 770 ANGLES
Info: 1254 DIHEDRAL
Info: 81 IMPROPER
Info: 6 CROSSTERM
Info: 190 VDW
Info: 0 VDW_PAIRS
Info: 0 NBTHOLE_PAIRS
Info: STRUCTURE SUMMARY:
Info: 7880 ATOMS
Info: 5999 BONDS
Info: 6061 ANGLES
Info: 5599 DIHEDRALS
Info: 262 IMPROPERS
Info: 83 CROSSTERMS
Info: 0 EXCLUSIONS
Info: 706 CONSTRAINTS
Info: 23640 DEGREES OF FREEDOM
Info: 2871 HYDROGEN GROUPS
Info: 4 ATOMS IN LARGEST HYDROGEN GROUP
Info: 2871 MIGRATION GROUPS
Info: 4 ATOMS IN LARGEST MIGRATION GROUP
Info: TOTAL MASS = 48030.1 amu
Info: TOTAL CHARGE = -1.24797e-06 e
Info: MASS DENSITY = 1.02957 g/cm^3
Info: ATOM DENSITY = 0.101721 atoms/A^3
Info: REMOVING COM VELOCITY 0 0 0
Info: NONBONDED TABLE R-SQUARED SPACING: 0.0625
Info: NONBONDED TABLE SIZE: 705 POINTS
TCL: Minimizing for 2000 steps
ETITLE: TS BOND ANGLE DIHED IMPRP ELECT VDW BOUNDARY MISC KINETIC TOTAL TEMP POTENTIAL TOTAL3 TEMPAVG PRESSURE GPRESSURE VOLUME PRESSAVG GPRESSAVG
ENERGY: 0 2436.7054 1265.8967 477.2283 14.3093 -26133.1885 9999999999.9999 0.0000 0.0000 0.0000 9999999999.9999 0.0000 9999999999.9999 9999999999.9999 0.0000 9999999999.9999 9999999999.9999 77467.1392 9999999999.9999 9999999999.9999
ENERGY: 400 845.2688 843.9268 485.5711 14.2470 -32533.2995 2679.9131 18.5206 0.0000 0.0000 -27645.8520 0.0000 -27645.8520 -27645.8520 0.0000 -73.7058 145.3389 77467.1392 -73.7058 145.3389
ENERGY: 800 911.6206 832.0036 456.4583 12.0206 -34535.2321 2644.7465 33.5423 0.0000 0.0000 -29644.8401 0.0000 -29644.8401 -29644.8401 0.0000 -2659.3490 -2634.6744 77467.1392 -2659.3490 -2634.6744
ENERGY: 1200 930.4257 839.0280 448.9312 11.4994 -35122.8572 2712.2975 38.6105 0.0000 0.0000 -30142.0648 0.0000 -30142.0648 -30142.0648 0.0000 -2957.8957 -2995.5350 77467.1392 -2957.8957 -2995.5350
ENERGY: 1600 943.5524 839.2303 448.4314 11.3104 -35422.2831 2778.1656 35.7963 0.0000 0.0000 -30365.7966 0.0000 -30365.7966 -30365.7966 0.0000 -2944.6458 -2974.5594 77467.1392 -2944.6458 -2974.5594
ENERGY: 2000 949.5736 838.7379 447.9013 10.7426 -35562.6540 2789.4065 36.3118 0.0000 0.0000 -30489.9803 0.0000 -30489.9803 -30489.9803 0.0000 -3079.3421 -3069.0844 77467.1392 -3079.3421 -3069.0844
